%nprocshared=20
%mem=5GB
#p m062x/cc-pVTZ Opt=(ts,calcfc,noeigentest,ModRedun,maxcycles=900) scf=(maxcycle=900) 

Gaussian input prepared by ASE

0 2
O                 1.4945850000       -0.5305990000        0.3304960000
O                 1.1339270000        0.4324170000       -0.6088140000
C                -1.0807890000        0.6957060000        0.3624550000
C                -1.5570190000       -0.6099330000       -0.1908660000
H                 0.1540140000        0.9003650000       -0.1912220000
H                -0.7882470000        0.6949680000        1.4094920000
H                -1.6326630000        1.5839150000        0.0663810000
H                -2.5052890000       -0.8999060000        0.2707570000
H                -0.8322070000       -1.3962380000        0.0095390000
H                -1.7145110000       -0.5506590000       -1.2663300000
H                 2.1176560000       -0.0616180000        0.8983910000

1 4 F
1 6 F
1 7 F
1 8 F
1 9 F
1 10 F
1 11 F
4 6 F
4 7 F
4 8 F
4 9 F
4 10 F
4 11 F
6 7 F
6 8 F
6 9 F
6 10 F
6 11 F
7 8 F
7 9 F
7 10 F
7 11 F
8 9 F
8 10 F
8 11 F
9 10 F
9 11 F
10 11 F

