%nprocshared=20
%mem=5GB
#p m062x/cc-pVTZ opt=(calcfc,maxcycles=900) freq IOP(7/33=1,2/16=3) scf=(maxcycle=900) 

Gaussian input prepared by ASE

0 2
C                -0.6234303930        0.0185485730        0.0117868430
C                 0.8665233193       -0.0447242420       -0.1762798907
H                -1.1318857847        0.4914471363       -0.8665820621
H                -0.8855877378        0.6469311035        0.8963351468
H                -1.0500416570       -0.9952329736        0.1625551922
H                 1.4484338475        0.8885599185       -0.0974001537
H                 1.3964346373       -0.9674285333        0.0971698046



