%nprocshared=20
%mem=5GB
#p m062x/cc-pVTZ opt=(calcfc,maxcycles=900) freq IOP(7/33=1,2/16=3) scf=(maxcycle=900) 

Gaussian input prepared by ASE

0 1
C                -0.7515913273        0.0096604372       -0.0111363759
C                 0.7518736055       -0.0038437226        0.0140204009
H                -1.1676165328       -0.1815843014        1.0067863610
H                -1.1308392842        0.9910062826       -0.3546766778
H                -1.1385822925       -0.7633916563       -0.6880265026
H                 1.1492313714        0.8873966435        0.5775343721
H                 1.1637770744        0.0252532610       -1.0052236562
H                 1.1287439784       -0.9153193104        0.5154955696



