%nprocshared=20
%mem=5GB
#p m062x/cc-pVTZ opt=(calcfc,maxcycles=900) freq IOP(7/33=1,2/16=3) scf=(maxcycle=900) 

Gaussian input prepared by ASE

0 1
C                -0.7567000000        0.0235000000        0.0599000000
C                 0.7461000000       -0.0303000000       -0.0458000000
H                -1.2340000000       -0.9503000000       -0.2126000000
H                -1.1200000000        0.8273000000       -0.6289000000
H                -1.0059000000        0.2791000000        1.1063000000
H                 1.1480000000        0.9895000000       -0.2143000000
H                 1.2481000000       -0.4355000000        0.8354000000
H                 0.9745000000       -0.7032000000       -0.9001000000



